*Heading
** Job name: er Model name: BallDrop
** Generated by: Abaqus/CAE 2018
*Preprint, echo=NO, model=NO, history=NO, contact=NO
**
** PARTS
**
*Part, name=ELASTOLLAN
*Node
      1,         10.5,         -0.5
      2,         10.5,          2.5
      3,           0.,          2.5
      4,           0.,         -0.5
      5,          25.,         -0.5
      6,          25.,          2.5
      7,         10.5, -0.200000003
      8,         10.5,  0.100000001
      9,         10.5,  0.400000006
     10,         10.5,  0.699999988
     11,         10.5,           1.
     12,         10.5,   1.29999995
     13,         10.5,   1.60000002
     14,         10.5,   1.89999998
     15,         10.5,   2.20000005
     16,   10.1999998,          2.5
     17,   9.89999962,          2.5
     18,   9.60000038,          2.5
     19,   9.30000019,          2.5
     20,           9.,          2.5
** ... 904 like lines cut
*Element, type=CAX4R
  1,   1,   7, 196,  92
  2,   7,   8, 197, 196
  3,   8,   9, 198, 197
  4,   9,  10, 199, 198
  5,  10,  11, 200, 199
  6,  11,  12, 201, 200
  7,  12,  13, 202, 201
  8,  13,  14, 203, 202
  9,  14,  15, 204, 203
 10,  15,   2,  16, 204
 11,  92, 196, 205,  91
 12, 196, 197, 206, 205
 13, 197, 198, 207, 206
 14, 198, 199, 208, 207
 15, 199, 200, 209, 208
 16, 200, 201, 210, 209
 17, 201, 202, 211, 210
 18, 202, 203, 212, 211
 19, 203, 204, 213, 212
 20, 204,  16,  17, 213
** ... 810 like lines cut
*Nset, nset=_PICKEDSET5, internal, generate
   1,  924,    1
*Elset, elset=_PICKEDSET5, internal, generate
   1,  830,    1
** Section: Section-1-_PICKEDSET5
*Solid Section, elset=_PICKEDSET5, material="Elastollan C 95 A"
,
*End Part
**  
*Part, name=RIGIDBODY-1
*End Part
**  
**
** ASSEMBLY
**
*Assembly, name=Assembly
**  
*Instance, name=ELASTOLLAN-1, part=ELASTOLLAN
          0.,        -12.5,           0.
*End Instance
**  
*Instance, name=RIGIDBODY-1, part=RIGIDBODY-1
          0.,         -10.,           0.
*Node
      1,           0.,          10.
*Nset, nset=RIGIDBODY-1-RefPt_, internal
 1,
*Nset, nset=RIGIDBODY-1-REFPT_, internal
 1,
*Nset, nset=_PICKEDSET3, internal
 1,
*Nset, nset=_M4, internal
 1,
*Surface, type=SEGMENTS, name=RIGIDBODY-1-RIGIDSURFACE_, internal
START,           8.,           4.
 CIRCL,           0.,           0.,           0.,          10.
*Element, type=MASS, elset=_M4_Interia-1_MASS__
1, 1
*Mass, elset=_M4_Interia-1_MASS__
3.262e-05, 
*End Instance
**  
*Nset, nset=RP, instance=RIGIDBODY-1
 1,
*Nset, nset=_PICKEDSET71, internal, instance=ELASTOLLAN-1
   1,   4,   5,  59,  60,  61,  62,  63,  64,  65,  66,  67,  68,  69,  70,  71
  72,  73,  74,  75,  76,  77,  78,  79,  80,  81,  82,  83,  84,  85,  86,  87
  88,  89,  90,  91,  92,  93,  94,  95,  96,  97,  98,  99, 100, 101, 102, 103
 104, 105, 106, 107, 108, 109, 110, 111, 112, 113, 114, 115, 116, 117, 118, 119
 120, 121, 122, 123, 124, 125, 126, 127, 128, 129, 130, 131, 132, 133, 134, 135
 136, 137, 138, 139
*Elset, elset=_PICKEDSET71, internal, instance=ELASTOLLAN-1
   1,  11,  21,  31,  41,  51,  61,  71,  81,  91, 101, 111, 121, 131, 141, 151
 161, 171, 181, 191, 201, 211, 221, 231, 241, 251, 261, 271, 281, 291, 301, 311
 321, 331, 341, 360, 370, 380, 390, 400, 410, 420, 430, 440, 450, 460, 470, 480
 490, 500, 510, 520, 530, 540, 550, 560, 570, 580, 590, 600, 610, 620, 630, 640
 650, 660, 670, 680, 690, 700, 710, 720, 730, 740, 750, 760, 770, 780, 790, 800
 810, 820, 830
*Nset, nset=_PICKEDSET74, internal, instance=RIGIDBODY-1
 1,
*Nset, nset=_PICKEDSET75, internal, instance=RIGIDBODY-1
 1,
*Nset, nset=_PICKEDSET77, internal, instance=RIGIDBODY-1
 1,
*Elset, elset=__PICKEDSURF76_S2, internal, instance=ELASTOLLAN-1, generate
  10,  350,   10
*Surface, type=ELEMENT, name=_PICKEDSURF76, internal
__PICKEDSURF76_S2, S2
** Constraint: RigidBody-1
*Rigid Body, ref node=RIGIDBODY-1.RIGIDBODY-1-REFPT_, analytical surface=RIGIDBODY-1.RIGIDBODY-1-RIGIDSURFACE_
*End Assembly
** 
** MATERIALS
** 
*Material, name="Elastollan C 95 A"
*Density
 1.62e-09,
*Hyperelastic, neo hooke, test data input, moduli=INSTANTANEOUS
*Uniaxial Test Data, smooth=3
      0., 0.000667
  0.0616, 0.000872
  0.0641, 0.000898
  0.4226, 0.004731
  0.6251, 0.006807
  0.6751, 0.007304
  1.0159, 0.010473
  1.0679, 0.010919
  1.1546, 0.011638
  1.1952, 0.011967
  1.3238,  0.01297
  1.8643, 0.016577
  1.8696, 0.016628
  2.0929, 0.018679
  2.1525, 0.019217
  2.2107, 0.019738
  2.3188, 0.020702
   2.801, 0.024894
  2.8413, 0.025345
  2.9406, 0.026426
** ... 197 like lines cut
*Viscoelastic, time=PRONY
0.26, 0.26, 1.00E-04
0.26, 0.26, 1.00E-03
 0.18,   0.18,   0.01
*Material, name=STEEL
*Density
 8.7e-07,
*Elastic
 2.1e+08, 0.3
** 
** INTERACTION PROPERTIES
** 
*Surface Interaction, name=INTPROP-1
*Surface Behavior, pressure-overclosure=HARD
** 
** BOUNDARY CONDITIONS
** 
** Name: Disp-BC-1 Type: Displacement/Rotation
*Boundary
_PICKEDSET74, 1, 1
** Name: Disp-BC-2 Type: Displacement/Rotation
*Boundary
_PICKEDSET74, 6, 6
** 
** PREDEFINED FIELDS
** 
** Name: IC-1   Type: Velocity
*Initial Conditions, type=VELOCITY
_PICKEDSET77, 2, -3350.
** ----------------------------------------------------------------
** 
** STEP: Step-1
** 
*Step, name=Step-1, nlgeom=YES
*Dynamic, Explicit
, 1.0
*Bulk Viscosity
0.06, 1.2
** 
** BOUNDARY CONDITIONS
** 
** Name: Disp-BC-3 Type: Displacement/Rotation
*Boundary
_PICKEDSET71, 1, 1
** Name: Disp-BC-4 Type: Displacement/Rotation
*Boundary
_PICKEDSET71, 2, 2
** 
** LOADS
** 
** Name: CFORCE-1   Type: Concentrated force
*Cload
_PICKEDSET75, 2, -0.316112
** 
** INTERACTIONS
** 
** Interaction: INT-1-1
*Contact Pair, interaction=INTPROP-1, mechanical constraint=KINEMATIC, cpset=INT-1-1
RIGIDBODY-1.RIGIDBODY-1-RIGIDSURFACE_, _PICKEDSURF76
** 
** OUTPUT REQUESTS
** 
*Restart, write, number interval=1, time marks=NO
** 
** FIELD OUTPUT: F-Output-1
** 
*Output, field, time interval=0.005
*Node Output
COORD, UT, VT
** 
** HISTORY OUTPUT: H-Output-1
** 
*Output, history, variable=PRESELECT
*End Step
